
**** 11/17/24 13:30:47 *** PSpice 24.1.0 (4 September 2024) *** ID# 0 ********

 ** Profile: "SCHEMATIC1-Amplificare"  [ C:\Users\octav\Desktop\P1_2024_432E_TUFAN_OCTAVIAN_IOAN_SERS_N21_ORCAD\Schematics\SERS N21\A


 ****     CIRCUIT DESCRIPTION


******************************************************************************




** Creating circuit file "Amplificare.cir" 
** WARNING: THIS AUTOMATICALLY GENERATED FILE MAY BE OVERWRITTEN BY SUBSEQUENT SIMULATIONS

*Libraries: 
* Profile Libraries :
* Local Libraries :
.LIB "C:/Users/octav/Desktop/P1_2024_432E_TUFAN_OCTAVIAN_IOAN_SERS_N21_ORCAD/Schematics/lib/modele_lib/bc846b.lib" 
.LIB "C:/Users/octav/Desktop/P1_2024_432E_TUFAN_OCTAVIAN_IOAN_SERS_N21_ORCAD/Schematics/lib/modele_lib/bc856b.lib" 
.LIB "C:/Users/octav/Desktop/P1_2024_432E_TUFAN_OCTAVIAN_IOAN_SERS_N21_ORCAD/Schematics/lib/modele_lib/bzx84c8v2.lib" 
.LIB "C:/Users/octav/Desktop/P1_2024_432E_TUFAN_OCTAVIAN_IOAN_SERS_N21_ORCAD/Schematics/lib/modele_lib/mjd32cg.lib" 
* From [PSPICE NETLIST] section of C:\SPB_Data\cdssetup\OrCAD_PSpice\24.1.0\PSpice.ini file:
.lib "nom.lib" 

*Analysis directives: 
.DC LIN V_V2 7.8 9 0.01 
.OPTIONS ADVCONV
.PROBE64 V(alias(*)) I(alias(*)) W(alias(*)) D(alias(*)) NOISE(alias(*)) 
.INC "..\SCHEMATIC1.net" 



**** INCLUDING SCHEMATIC1.net ****
* source AMPLICARE_IN_BUCLA_DESCHISA
Q_Q1         N306188 N306110 N306008 QBC856B 
D_D2         0 N306214 BZX84-C8V2 
Q_Q4         N306110 N306308 N306320 QBC846B 
Q_Q3         N306188 N306214 N306320 QBC846B 
R_R3         N306214 N306020  4.7k TC=0,0 
R_R7         0 N306320  2.7k TC=0,0 
R_R1         N306020 N305870  4.7k TC=0,0 
V_V2         N306308 0  AC 0
+SIN 8.2 1 100 0 0 0
R_R5         N306008 N305870  220 TC=0,0 
R_R6         N306014 N305870  220 TC=0,0 
R_R2         N306020 N305870  4.7k TC=0,0 
V_V1         N305870 0 42
R_R4         N306214 N306020  4.7k TC=0,0 
Q_Q2         N306110 N306110 N306014 QBC856B 

**** RESUMING Amplificare.cir ****
.END

**** 11/17/24 13:30:47 *** PSpice 24.1.0 (4 September 2024) *** ID# 0 ********

 ** Profile: "SCHEMATIC1-Amplificare"  [ C:\Users\octav\Desktop\P1_2024_432E_TUFAN_OCTAVIAN_IOAN_SERS_N21_ORCAD\Schematics\SERS N21\A


 ****     Diode MODEL PARAMETERS


******************************************************************************




               BZX84-C8V2      
          IS  110.880000E-18 
           N     .92657      
         ISR  146.750000E-12 
         IKF  149.75         
          BV    8.3329       
         IBV    1.0062       
          RS     .85899      
          TT    2.770000E-06 
         CJO   54.185000E-12 
          VJ     .66823      
           M     .33443      


**** 11/17/24 13:30:47 *** PSpice 24.1.0 (4 September 2024) *** ID# 0 ********

 ** Profile: "SCHEMATIC1-Amplificare"  [ C:\Users\octav\Desktop\P1_2024_432E_TUFAN_OCTAVIAN_IOAN_SERS_N21_ORCAD\Schematics\SERS N21\A


 ****     BJT MODEL PARAMETERS


******************************************************************************




               QBC846B         QBC856B         
               NPN             PNP             
       LEVEL    1               1            
          IS   18.220000E-15   20.140000E-15 
          BF  324.4           315.3          
          NF     .9932           .9974       
         VAF   82              39.15         
         IKF     .109            .079        
         ISE  289.400000E-18    6.578000E-15 
          NE    1.4             1.45         
          BR    8.29            8.68         
          NR     .9931           .9952       
         VAR   17.9             9.5          
         IKR     .09             .09         
         ISC    9.982000E-12   16.330000E-15 
          NC    1.763           1.15         
         ISS    0               0            
          RB   10              10            
         RBM    5               5.000000E-06 
         IRB    5.000000E-06    5.000000E-06 
          RE     .649            .663        
          RC     .7014           .718        
         CJE   12.440000E-12   11.350000E-12 
         VJE     .7579           .7071       
         MJE     .3656           .3808       
         CJC    3.347000E-12    6.395000E-12 
         VJC     .5463           .4951       
         MJC     .391            .44         
        XCJC     .6193           .6288       
         CJS    0               0            
         VJS     .75             .75         
         MJS     .333            .333        
          FC     .979            .9059       
          TF  490.800000E-12  654.600000E-12 
         XTF    9.51            5.387        
         VTF    2.927           6.245        
         ITF     .3131           .2108       
          TR   90.000000E-09   55.000000E-09 
          KF    0               0            
          AF    1               1            
          CN    2.42            2.2          
           D     .87             .52         



          JOB CONCLUDED

**** 11/17/24 13:30:47 *** PSpice 24.1.0 (4 September 2024) *** ID# 0 ********

 ** Profile: "SCHEMATIC1-Amplificare"  [ C:\Users\octav\Desktop\P1_2024_432E_TUFAN_OCTAVIAN_IOAN_SERS_N21_ORCAD\Schematics\SERS N21\A


 ****     JOB STATISTICS SUMMARY


******************************************************************************



  Total job time (using Solver 1)   =         .03
